[General]
network = P2PNetwork
sim-time-limit = 10s

*.client[*].N = 5