[General]
network           = P2PNetwork
sim-time-limit    = 60s

# Match N here whenever you regenerate topo.txt / network.ned with ned_file_generator.py
*.client[*].N             = 5
*.client[*].totalSubtasks = 10

# Use command-line output (no GUI required)
# Remove or comment out the next line when running inside the OMNeT++ IDE
#cmdenv-express-mode = false