[General]
network = P2PNetwork
sim-time-limit = 10s

*.client[*].id = index
*.client[*].N = 5